126799511
  -OEChem-12062315083D

 51 54  0     1  0  0  0  0  0999 V2000
    0.0121    2.7893    0.2433 O   0  0  0  0  0  0  0  0  0  0  0  0
   -2.7107    2.4157    1.0724 O   0  0  0  0  0  0  0  0  0  0  0  0
    4.6642   -0.4676    0.2331 N   0  0  2  0  0  0  0  0  0  0  0  0
    0.8919    1.2265   -1.2290 N   0  0  0  0  0  0  0  0  0  0  0  0
    0.4735   -2.7335    0.0132 N   0  0  0  0  0  0  0  0  0  0  0  0
   -1.6330   -0.1059   -1.1259 N   0  0  0  0  0  0  0  0  0  0  0  0
    3.1361    1.2323   -0.2732 C   0  0  1  0  0  0  0  0  0  0  0  0
    3.3451   -0.2880   -0.4051 C   0  0  2  0  0  0  0  0  0  0  0  0
    4.5482    1.8211   -0.3541 C   0  0  0  0  0  0  0  0  0  0  0  0
    5.4912    0.6268   -0.2836 C   0  0  0  0  0  0  0  0  0  0  0  0
    2.1998    1.8020   -1.3322 C   0  0  0  0  0  0  0  0  0  0  0  0
    2.2318   -1.0896    0.2388 C   0  0  0  0  0  0  0  0  0  0  0  0
    5.2675   -1.7669   -0.0457 C   0  0  0  0  0  0  0  0  0  0  0  0
    1.9329   -0.9445    1.5890 C   0  0  0  0  0  0  0  0  0  0  0  0
    1.4793   -1.9893   -0.4989 C   0  0  0  0  0  0  0  0  0  0  0  0
   -0.1140    1.7745   -0.4370 C   0  0  0  0  0  0  0  0  0  0  0  0
    0.9051   -1.6928    2.1522 C   0  0  0  0  0  0  0  0  0  0  0  0
   -1.4070    1.0434   -0.4170 C   0  0  0  0  0  0  0  0  0  0  0  0
    0.2119   -2.5654    1.3289 C   0  0  0  0  0  0  0  0  0  0  0  0
   -2.5594    1.3517    0.2684 C   0  0  0  0  0  0  0  0  0  0  0  0
   -3.5247    0.3512   -0.0351 C   0  0  0  0  0  0  0  0  0  0  0  0
   -2.9181   -0.5509   -0.9117 C   0  0  0  0  0  0  0  0  0  0  0  0
   -4.8605    0.1258    0.3531 C   0  0  0  0  0  0  0  0  0  0  0  0
   -3.5832   -1.6716   -1.4216 C   0  0  0  0  0  0  0  0  0  0  0  0
   -5.5381   -0.9912   -0.1492 C   0  0  0  0  0  0  0  0  0  0  0  0
   -4.9073   -1.8746   -1.0227 C   0  0  0  0  0  0  0  0  0  0  0  0
   -3.0344    2.1715    2.4497 C   0  0  0  0  0  0  0  0  0  0  0  0
    2.7331    1.4911    0.7156 H   0  0  0  0  0  0  0  0  0  0  0  0
    3.4179   -0.5506   -1.4712 H   0  0  0  0  0  0  0  0  0  0  0  0
    4.7161    2.4969    0.4927 H   0  0  0  0  0  0  0  0  0  0  0  0
    4.7166    2.3927   -1.2733 H   0  0  0  0  0  0  0  0  0  0  0  0
    5.8688    0.4068   -1.2907 H   0  0  0  0  0  0  0  0  0  0  0  0
    6.3479    0.8293    0.3671 H   0  0  0  0  0  0  0  0  0  0  0  0
    2.5713    1.5897   -2.3409 H   0  0  0  0  0  0  0  0  0  0  0  0
    2.1266    2.8902   -1.2262 H   0  0  0  0  0  0  0  0  0  0  0  0
    4.6681   -2.5760    0.3845 H   0  0  0  0  0  0  0  0  0  0  0  0
    6.2586   -1.8319    0.4168 H   0  0  0  0  0  0  0  0  0  0  0  0
    5.3776   -1.9548   -1.1198 H   0  0  0  0  0  0  0  0  0  0  0  0
    0.7143    0.3972   -1.7837 H   0  0  0  0  0  0  0  0  0  0  0  0
    2.4929   -0.2620    2.2218 H   0  0  0  0  0  0  0  0  0  0  0  0
    1.6627   -2.1474   -1.5570 H   0  0  0  0  0  0  0  0  0  0  0  0
    0.6551   -1.5968    3.2025 H   0  0  0  0  0  0  0  0  0  0  0  0
   -0.5996   -3.1708    1.7191 H   0  0  0  0  0  0  0  0  0  0  0  0
   -0.9662   -0.5731   -1.7234 H   0  0  0  0  0  0  0  0  0  0  0  0
   -5.3757    0.8060    1.0242 H   0  0  0  0  0  0  0  0  0  0  0  0
   -3.0926   -2.3601   -2.1014 H   0  0  0  0  0  0  0  0  0  0  0  0
   -6.5692   -1.1689    0.1448 H   0  0  0  0  0  0  0  0  0  0  0  0
   -5.4525   -2.7356   -1.4010 H   0  0  0  0  0  0  0  0  0  0  0  0
   -2.7819    3.0709    3.0182 H   0  0  0  0  0  0  0  0  0  0  0  0
   -2.4530    1.3325    2.8463 H   0  0  0  0  0  0  0  0  0  0  0  0
   -4.1048    1.9827    2.5601 H   0  0  0  0  0  0  0  0  0  0  0  0
  1 16  2  0  0  0  0
  2 20  1  0  0  0  0
  2 27  1  0  0  0  0
  3  8  1  0  0  0  0
  3 10  1  0  0  0  0
  3 13  1  0  0  0  0
  4 11  1  0  0  0  0
  4 16  1  0  0  0  0
  4 39  1  0  0  0  0
  5 15  1  0  0  0  0
  5 19  2  0  0  0  0
  6 18  1  0  0  0  0
  6 22  1  0  0  0  0
  6 44  1  0  0  0  0
  7  8  1  0  0  0  0
  7  9  1  0  0  0  0
  7 11  1  0  0  0  0
  7 28  1  0  0  0  0
  8 12  1  0  0  0  0
  8 29  1  0  0  0  0
  9 10  1  0  0  0  0
  9 30  1  0  0  0  0
  9 31  1  0  0  0  0
 10 32  1  0  0  0  0
 10 33  1  0  0  0  0
 11 34  1  0  0  0  0
 11 35  1  0  0  0  0
 12 14  1  0  0  0  0
 12 15  2  0  0  0  0
 13 36  1  0  0  0  0
 13 37  1  0  0  0  0
 13 38  1  0  0  0  0
 14 17  2  0  0  0  0
 14 40  1  0  0  0  0
 15 41  1  0  0  0  0
 16 18  1  0  0  0  0
 17 19  1  0  0  0  0
 17 42  1  0  0  0  0
 18 20  2  0  0  0  0
 19 43  1  0  0  0  0
 20 21  1  0  0  0  0
 21 22  1  0  0  0  0
 21 23  2  0  0  0  0
 22 24  2  0  0  0  0
 23 25  1  0  0  0  0
 23 45  1  0  0  0  0
 24 26  1  0  0  0  0
 24 46  1  0  0  0  0
 25 26  2  0  0  0  0
 25 47  1  0  0  0  0
 26 48  1  0  0  0  0
 27 49  1  0  0  0  0
 27 50  1  0  0  0  0
 27 51  1  0  0  0  0
M  END
> <PUBCHEM_COMPOUND_CID>
126799511

> <PUBCHEM_CONFORMER_RMSD>
0.8

> <PUBCHEM_CONFORMER_DIVERSEORDER>
1
171
88
124
195
119
77
108
134
180
43
97
162
52
160
187
114
65
10
188
90
157
74
169
158
99
31
165
100
148
168
45
103
156
105
181
29
132
83
87
159
33
59
177
71
176
66
112
61
113
95
93
201
107
26
190
128
133
84
76
85
72
80
36
46
161
183
49
64
62
152
130
174
145
141
196
102
138
200
173
172
146
21
166
115
126
111
116
56
186
179
34
120
82
92
32
198
151
60
40
123
110
81
136
191
55
144
197
41
140
142
149
199
22
131
30
6
167
153
117
135
67
150
98
137
37
118
143
155
51
147
4
47
109
23
53
58
79
175
54
94
73
7
78
14
192
39
164
139
2
35
50
25
86
63
125
129
3
96
38
194
163
182
154
121
15
5
27
28
69
68
104
89
24
170
185
101
44
48
193
16
8
127
75
189
42
19
12
91
184
17
20
11
57
9
18
178
122
70
106
13

> <PUBCHEM_MMFF94_PARTIAL_CHARGES>
34
1 -0.57
10 0.27
11 0.3
12 -0.14
13 0.27
14 -0.15
15 0.16
16 0.71
17 -0.15
18 -0.24
19 0.16
2 -0.34
20 0.06
22 -0.15
23 -0.15
24 -0.15
25 -0.15
26 -0.15
27 0.28
3 -0.81
39 0.37
4 -0.73
40 0.15
41 0.15
42 0.15
43 0.15
44 0.27
45 0.15
46 0.15
47 0.15
48 0.15
5 -0.62
6 0.03
8 0.41

> <PUBCHEM_EFFECTIVE_ROTOR_COUNT>
7

> <PUBCHEM_PHARMACOPHORE_FEATURES>
11
1 1 acceptor
1 2 acceptor
1 3 cation
1 4 donor
1 5 acceptor
1 6 cation
1 6 donor
5 3 7 8 9 10 rings
5 6 18 20 21 22 rings
6 21 22 23 24 25 26 rings
6 5 12 14 15 17 19 rings

> <PUBCHEM_HEAVY_ATOM_COUNT>
27

> <PUBCHEM_ATOM_DEF_STEREO_COUNT>
2

> <PUBCHEM_ATOM_UDEF_STEREO_COUNT>
0

> <PUBCHEM_BOND_DEF_STEREO_COUNT>
0

> <PUBCHEM_BOND_UDEF_STEREO_COUNT>
0

> <PUBCHEM_ISOTOPIC_ATOM_COUNT>
0

> <PUBCHEM_COMPONENT_COUNT>
1

> <PUBCHEM_CACTVS_TAUTO_COUNT>
17

> <PUBCHEM_CONFORMER_ID>
078ECE9700000001

> <PUBCHEM_MMFF94_ENERGY>
65.1363

> <PUBCHEM_FEATURE_SELFOVERLAP>
55.918

> <PUBCHEM_SHAPE_FINGERPRINT>
10366900 7 16558458713348367103
1100329 8 18191021407473553294
11135609 187 18118403075343636092
11578080 2 18194091136992318341
12156800 1 12100797905366729601
12236239 1 18412263939177188349
12467345 10 18343867697284600173
12553582 1 18339625811858709103
12596599 1 18270125591129349527
12788726 201 17987254385234197329
13224815 77 18260825964662584787
13726171 33 16701755894500865376
13911987 19 16950580899341709070
14341114 328 18413673504166846045
14464042 87 18343023319736167527
14787075 74 18336262439589801140
15209289 33 18336548218688205636
15238133 3 12822749309149217531
17138139 8 18051122889666855407
17349148 13 18187364337368201568
17492 54 18040992994371311918
20028762 73 18411131412416116862
20511986 3 18410282593676068013
20691752 17 17895769404438656046
20775438 99 16256691480401177495
21857420 4 15401269157552534398
22393880 68 17969207963363628222
23559900 14 18270668883714224385
2871803 45 18113610188251162724
339767 52 18342731915021922085
392239 28 18260559943300355395
4409770 3 15814521861182829405
463206 1 18263646319989760015
484989 97 17752771509140325259
5104073 3 18059287674463245080
6287921 2 18198906915868666502
9849439 229 16409878236817667809
9981440 41 17044565211569315800

> <PUBCHEM_SHAPE_MULTIPOLES>
523.98
11.23
3.05
1.58
0.38
0.03
0.86
-1.47
-1.72
0.07
0.64
-0.88
0.03
-2.27

> <PUBCHEM_SHAPE_SELFOVERLAP>
1138.162

> <PUBCHEM_SHAPE_VOLUME>
286.7

> <PUBCHEM_COORDINATE_TYPE>
2
5
10

$$$$
